
#======================================================================
# CRYSTAL DATA
#----------------------------------------------------------------------
data_VESTA_phase_1

_chemical_name_common                  '3C Perovskite'
_cell_length_a                         8.896070
_cell_length_b                         8.896070
_cell_length_c                         10.895417
_cell_length_alpha                     90.000000
_cell_length_beta                      90.000000
_cell_length_gamma                     59.999996
_cell_volume                           746.742570
_space_group_name_H-M_alt              'P 1'
_space_group_IT_number                 1

loop_
_space_group_symop_operation_xyz
   'x, y, z'

loop_
   _atom_site_label
   _atom_site_occupancy
   _atom_site_fract_x
   _atom_site_fract_y
   _atom_site_fract_z
   _atom_site_adp_type
   _atom_site_B_iso_or_equiv
   _atom_site_type_symbol
   Cs1         1.0     0.000000     0.000000     0.000000    Biso  1.000000 Cs
   Cs2         1.0     0.333333     0.333333     0.333333    Biso  1.000000 Cs
   Cs3         1.0     0.666667     0.666667     0.666667    Biso  1.000000 Cs
   Sn1         1.0     0.666667     0.666667     0.166667    Biso  1.000000 Sn
   Sn2         1.0     1.000000     1.000000     0.500000    Biso  1.000000 Sn
   Sn3         1.0     1.333333     1.333333     0.833333    Biso  1.000000 Sn
   I1          1.0     0.500000     0.000000     0.000000    Biso  1.000000 I
   I2          1.0     0.833333     0.333333     0.333333    Biso  1.000000 I
   I3          1.0     1.166667     0.666667     0.666667    Biso  1.000000 I
   I4          1.0     0.000000     0.500000     0.000000    Biso  1.000000 I
   I5          1.0     0.333333     0.833333     0.333333    Biso  1.000000 I
   I6          1.0     0.666667     1.166667     0.666667    Biso  1.000000 I
   I7          1.0     0.500000     0.500000     0.000000    Biso  1.000000 I
   I8          1.0     0.833333     0.833333     0.333333    Biso  1.000000 I
   I9          1.0     1.166667     1.166667     0.666667    Biso  1.000000 I
