
#======================================================================
# CRYSTAL DATA
#----------------------------------------------------------------------
data_VESTA_phase_1

_chemical_name_common                  '11H (3c8h) Perovskite'
_cell_length_a                         8.896070
_cell_length_b                         8.896070
_cell_length_c                         39.949863
_cell_length_alpha                     90.000000
_cell_length_beta                      90.000000
_cell_length_gamma                     59.999996
_cell_volume                           2738.056112
_space_group_name_H-M_alt              'P 1'
_space_group_IT_number                 1

loop_
_space_group_symop_operation_xyz
   'x, y, z'

loop_
   _atom_site_label
   _atom_site_occupancy
   _atom_site_fract_x
   _atom_site_fract_y
   _atom_site_fract_z
   _atom_site_adp_type
   _atom_site_B_iso_or_equiv
   _atom_site_type_symbol
   Cs1         1.0     0.000000     0.000000     0.000000    Biso  1.000000 Cs
   Cs2         1.0     0.333333     0.333333     0.090909    Biso  1.000000 Cs
   Cs3         1.0     1.000000     1.000000     0.181818    Biso  1.000000 Cs
   Cs4         1.0     1.333333     1.333333     0.272727    Biso  1.000000 Cs
   Cs5         1.0     2.000000     2.000000     0.363636    Biso  1.000000 Cs
   Cs6         1.0     2.333333     2.333333     0.454545    Biso  1.000000 Cs
   Cs7         1.0     2.000000     2.000000     0.545455    Biso  1.000000 Cs
   Cs8         1.0     2.333333     2.333333     0.636364    Biso  1.000000 Cs
   Cs9         1.0     3.000000     3.000000     0.727273    Biso  1.000000 Cs
   Cs10        1.0     3.333333     3.333333     0.818182    Biso  1.000000 Cs
   Cs11        1.0     3.666667     3.666667     0.909091    Biso  1.000000 Cs
   Sn1         1.0     0.666667     0.666667     0.045455    Biso  1.000000 Sn
   Sn2         1.0     0.666667     0.666667     0.136364    Biso  1.000000 Sn
   Sn3         1.0     0.666667     0.666667     0.227273    Biso  1.000000 Sn
   Sn4         1.0     1.666667     1.666667     0.318182    Biso  1.000000 Sn
   Sn5         1.0     1.666667     1.666667     0.409091    Biso  1.000000 Sn
   Sn6         1.0     1.666667     1.666667     0.500000    Biso  1.000000 Sn
   Sn7         1.0     2.666667     2.666667     0.590909    Biso  1.000000 Sn
   Sn8         1.0     2.666667     2.666667     0.681818    Biso  1.000000 Sn
   Sn9         1.0     2.666667     2.666667     0.772727    Biso  1.000000 Sn
   Sn10        1.0     3.000000     3.000000     0.863636    Biso  1.000000 Sn
   Sn11        1.0     3.333333     3.333333     0.954545    Biso  1.000000 Sn
   I1          1.0     0.500000     0.000000     0.000000    Biso  1.000000 I
   I2          1.0     0.833333     0.333333     0.090909    Biso  1.000000 I
   I3          1.0     1.500000     1.000000     0.181818    Biso  1.000000 I
   I4          1.0     1.833333     1.333333     0.272727    Biso  1.000000 I
   I5          1.0     2.500000     2.000000     0.363636    Biso  1.000000 I
   I6          1.0     2.833333     2.333333     0.454545    Biso  1.000000 I
   I7          1.0     2.500000     2.000000     0.545455    Biso  1.000000 I
   I8          1.0     2.833333     2.333333     0.636364    Biso  1.000000 I
   I9          1.0     3.500000     3.000000     0.727273    Biso  1.000000 I
   I10         1.0     3.833333     3.333333     0.818182    Biso  1.000000 I
   I11         1.0     4.166667     3.666667     0.909091    Biso  1.000000 I
   I12         1.0     0.000000     0.500000     0.000000    Biso  1.000000 I
   I13         1.0     0.333333     0.833333     0.090909    Biso  1.000000 I
   I14         1.0     1.000000     1.500000     0.181818    Biso  1.000000 I
   I15         1.0     1.333333     1.833333     0.272727    Biso  1.000000 I
   I16         1.0     2.000000     2.500000     0.363636    Biso  1.000000 I
   I17         1.0     2.333333     2.833333     0.454545    Biso  1.000000 I
   I18         1.0     2.000000     2.500000     0.545455    Biso  1.000000 I
   I19         1.0     2.333333     2.833333     0.636364    Biso  1.000000 I
   I20         1.0     3.000000     3.500000     0.727273    Biso  1.000000 I
   I21         1.0     3.333333     3.833333     0.818182    Biso  1.000000 I
   I22         1.0     3.666667     4.166667     0.909091    Biso  1.000000 I
   I23         1.0     0.500000     0.500000     0.000000    Biso  1.000000 I
   I24         1.0     0.833333     0.833333     0.090909    Biso  1.000000 I
   I25         1.0     1.500000     1.500000     0.181818    Biso  1.000000 I
   I26         1.0     1.833333     1.833333     0.272727    Biso  1.000000 I
   I27         1.0     2.500000     2.500000     0.363636    Biso  1.000000 I
   I28         1.0     2.833333     2.833333     0.454545    Biso  1.000000 I
   I29         1.0     2.500000     2.500000     0.545455    Biso  1.000000 I
   I30         1.0     2.833333     2.833333     0.636364    Biso  1.000000 I
   I31         1.0     3.500000     3.500000     0.727273    Biso  1.000000 I
   I32         1.0     3.833333     3.833333     0.818182    Biso  1.000000 I
   I33         1.0     4.166667     4.166667     0.909091    Biso  1.000000 I
